1
  -OEChem-06212512493D

 31 30  0     1  0  0  0  0  0999 V2000
    0.3387    0.9262    0.4600 O   0  0  0  0  0  0  0  0  0  0  0  0
    3.4786   -1.7069   -0.3119 O   0  5  0  0  0  0  0  0  0  0  0  0
    1.8428   -1.4073    1.2523 O   0  0  0  0  0  0  0  0  0  0  0  0
    0.4166    2.5213   -1.2091 O   0  0  0  0  0  0  0  0  0  0  0  0
   -2.2359   -0.7251    0.0270 N   0  3  0  0  0  0  0  0  0  0  0  0
   -0.7783   -1.1579    0.0914 C   0  0  0  0  0  0  0  0  0  0  0  0
    0.1368   -0.0961   -0.5161 C   0  0  2  0  0  0  0  0  0  0  0  0
   -3.1119   -1.7972    0.6590 C   0  0  0  0  0  0  0  0  0  0  0  0
   -2.4103    0.5837    0.7840 C   0  0  0  0  0  0  0  0  0  0  0  0
   -2.6433   -0.5289   -1.4260 C   0  0  0  0  0  0  0  0  0  0  0  0
    1.4879   -0.6438   -0.9795 C   0  0  0  0  0  0  0  0  0  0  0  0
    2.3478   -1.3163    0.1002 C   0  0  0  0  0  0  0  0  0  0  0  0
    0.4627    2.1935   -0.0312 C   0  0  0  0  0  0  0  0  0  0  0  0
    0.6678    3.1549    1.1001 C   0  0  0  0  0  0  0  0  0  0  0  0
   -0.7073   -2.1051   -0.4563 H   0  0  0  0  0  0  0  0  0  0  0  0
   -0.5669   -1.3392    1.1503 H   0  0  0  0  0  0  0  0  0  0  0  0
   -0.3089    0.3239   -1.4193 H   0  0  0  0  0  0  0  0  0  0  0  0
   -2.9705   -2.7295    0.1044 H   0  0  0  0  0  0  0  0  0  0  0  0
   -2.8083   -1.9210    1.7028 H   0  0  0  0  0  0  0  0  0  0  0  0
   -4.1563   -1.4762    0.6031 H   0  0  0  0  0  0  0  0  0  0  0  0
   -2.0398    1.4170    0.1863 H   0  0  0  0  0  0  0  0  0  0  0  0
   -3.4837    0.7378    0.9384 H   0  0  0  0  0  0  0  0  0  0  0  0
   -1.9129    0.5071    1.7551 H   0  0  0  0  0  0  0  0  0  0  0  0
   -2.2450    0.4089   -1.8190 H   0  0  0  0  0  0  0  0  0  0  0  0
   -2.3000   -1.3879   -2.0100 H   0  0  0  0  0  0  0  0  0  0  0  0
   -3.7365   -0.4723   -1.4630 H   0  0  0  0  0  0  0  0  0  0  0  0
    1.3299   -1.3744   -1.7823 H   0  0  0  0  0  0  0  0  0  0  0  0
    2.0900    0.1756   -1.3923 H   0  0  0  0  0  0  0  0  0  0  0  0
   -0.1953    3.1280    1.7699 H   0  0  0  0  0  0  0  0  0  0  0  0
    0.7681    4.1684    0.7012 H   0  0  0  0  0  0  0  0  0  0  0  0
    1.5832    2.9010    1.6404 H   0  0  0  0  0  0  0  0  0  0  0  0
  1  7  1  0  0  0  0
  1 13  1  0  0  0  0
  2 12  1  0  0  0  0
  3 12  2  0  0  0  0
  4 13  2  0  0  0  0
  5  6  1  0  0  0  0
  5  8  1  0  0  0  0
  5  9  1  0  0  0  0
  5 10  1  0  0  0  0
  6  7  1  0  0  0  0
  6 15  1  0  0  0  0
  6 16  1  0  0  0  0
  7 11  1  0  0  0  0
  7 17  1  0  0  0  0
  8 18  1  0  0  0  0
  8 19  1  0  0  0  0
  8 20  1  0  0  0  0
  9 21  1  0  0  0  0
  9 22  1  0  0  0  0
  9 23  1  0  0  0  0
 10 24  1  0  0  0  0
 10 25  1  0  0  0  0
 10 26  1  0  0  0  0
 11 12  1  0  0  0  0
 11 27  1  0  0  0  0
 11 28  1  0  0  0  0
 13 14  1  0  0  0  0
 14 29  1  0  0  0  0
 14 30  1  0  0  0  0
 14 31  1  0  0  0  0
M  CHG  2   2  -1   5   1
M  END
> <PUBCHEM_COMPOUND_CID>
1

> <PUBCHEM_CONFORMER_RMSD>
0.6

> <PUBCHEM_CONFORMER_DIVERSEORDER>
2
43
65
46
25
35
57
19
53
42
34
37
41
50
30
14
13
10
56
28
55
22
17
44
52
48
21
7
61
16
66
36
12
32
40
1
24
29
63
47
9
39
60
5
20
31
62
51
4
59
67
8
18
11
33
26
6
27
64
15
58
54
23
38
3
45
49

> <PUBCHEM_MMFF94_PARTIAL_CHARGES>
14
1 -0.43
10 0.5
11 -0.11
12 0.91
13 0.66
14 0.06
2 -0.9
3 -0.9
4 -0.57
5 -1.01
6 0.5
7 0.28
8 0.5
9 0.5

> <PUBCHEM_EFFECTIVE_ROTOR_COUNT>
6

> <PUBCHEM_PHARMACOPHORE_FEATURES>
5
1 2 acceptor
1 3 acceptor
1 4 acceptor
1 5 cation
3 2 3 12 anion

> <PUBCHEM_HEAVY_ATOM_COUNT>
14

> <PUBCHEM_ATOM_DEF_STEREO_COUNT>
0

> <PUBCHEM_ATOM_UDEF_STEREO_COUNT>
1

> <PUBCHEM_BOND_DEF_STEREO_COUNT>
0

> <PUBCHEM_BOND_UDEF_STEREO_COUNT>
0

> <PUBCHEM_ISOTOPIC_ATOM_COUNT>
0

> <PUBCHEM_COMPONENT_COUNT>
1

> <PUBCHEM_CACTVS_TAUTO_COUNT>
1

> <PUBCHEM_CONFORMER_ID>
0000000100000002

> <PUBCHEM_MMFF94_ENERGY>
37.801

> <PUBCHEM_FEATURE_SELFOVERLAP>
25.427

> <PUBCHEM_SHAPE_FINGERPRINT>
1 1 17907859857256425260
13132413 78 18339935856441330356
16945 1 18127404777055172104
17841504 4 18338806718360982307
18410436 195 18412821378365737484
20361792 2 18413103948606886951
20645477 70 18193836175106948431
20653091 64 18337681930618404851
20711985 327 18273495675867710310
20711985 344 18052533275153547866
21041028 32 18342473533857807689
21061003 4 18410298003707379195
21524375 3 17335906067529293413
22112679 90 18128282041358100696
23419403 2 17977062926062270852
23552423 10 18193564595396549919
23557571 272 18127697028774774262
23598294 1 17832149325056171186
2748010 2 18339911658547624660
305870 269 17981602981145137625
31174 14 18192722361058170003
528862 383 18124596637411617035
7364860 26 18197783412505576099
81228 2 18051694343465326048
81539 233 17831573545929999781

> <PUBCHEM_SHAPE_MULTIPOLES>
259.66
4.28
3.04
1.21
1.75
2.55
0.16
-3.13
-0.22
-2.18
-0.56
0.21
0.17
0.09

> <PUBCHEM_SHAPE_SELFOVERLAP>
494.342

> <PUBCHEM_SHAPE_VOLUME>
160.7

> <PUBCHEM_COORDINATE_TYPE>
2
5
10

$$$$
2
  -OEChem-06212512493D

 32 31  0     1  0  0  0  0  0999 V2000
   -0.3716   -0.9039   -0.2836 O   0  0  0  0  0  0  0  0  0  0  0  0
   -1.6132    3.0213    0.1787 O   0  0  0  0  0  0  0  0  0  0  0  0
   -1.9869    1.2054   -1.1367 O   0  0  0  0  0  0  0  0  0  0  0  0
   -1.6468   -2.1498    1.1855 O   0  0  0  0  0  0  0  0  0  0  0  0
    2.3652    0.0287   -0.1171 N   0  3  0  0  0  0  0  0  0  0  0  0
    1.1845    0.8766    0.1895 C   0  0  0  0  0  0  0  0  0  0  0  0
    0.0537    0.0070    0.7310 C   0  0  1  0  0  0  0  0  0  0  0  0
    2.0056   -1.0527   -1.1447 C   0  0  0  0  0  0  0  0  0  0  0  0
    3.5074    0.8756   -0.6937 C   0  0  0  0  0  0  0  0  0  0  0  0
    2.8785   -0.6677    1.1501 C   0  0  0  0  0  0  0  0  0  0  0  0
   -1.1484    0.8729    1.1062 C   0  0  0  0  0  0  0  0  0  0  0  0
   -1.6224    1.6883   -0.0726 C   0  0  0  0  0  0  0  0  0  0  0  0
   -1.3995   -1.7323    0.0623 C   0  0  0  0  0  0  0  0  0  0  0  0
   -2.2062   -2.0695   -1.1549 C   0  0  0  0  0  0  0  0  0  0  0  0
    1.4897    1.6355    0.9198 H   0  0  0  0  0  0  0  0  0  0  0  0
    0.9066    1.3768   -0.7456 H   0  0  0  0  0  0  0  0  0  0  0  0
    0.3516   -0.5470    1.6262 H   0  0  0  0  0  0  0  0  0  0  0  0
    1.5547   -1.9181   -0.6537 H   0  0  0  0  0  0  0  0  0  0  0  0
    1.3916   -0.6126   -1.9360 H   0  0  0  0  0  0  0  0  0  0  0  0
    2.9430   -1.4055   -1.5903 H   0  0  0  0  0  0  0  0  0  0  0  0
    3.7665    1.6420    0.0426 H   0  0  0  0  0  0  0  0  0  0  0  0
    4.3665    0.2270   -0.8888 H   0  0  0  0  0  0  0  0  0  0  0  0
    3.1544    1.3361   -1.6211 H   0  0  0  0  0  0  0  0  0  0  0  0
    3.0041    0.0867    1.9322 H   0  0  0  0  0  0  0  0  0  0  0  0
    2.1838   -1.4512    1.4603 H   0  0  0  0  0  0  0  0  0  0  0  0
    3.8432   -1.1290    0.9149 H   0  0  0  0  0  0  0  0  0  0  0  0
   -0.8590    1.5557    1.9150 H   0  0  0  0  0  0  0  0  0  0  0  0
   -2.0090    0.3087    1.4774 H   0  0  0  0  0  0  0  0  0  0  0  0
   -1.5601   -2.1359   -2.0349 H   0  0  0  0  0  0  0  0  0  0  0  0
   -2.9780   -1.3132   -1.3100 H   0  0  0  0  0  0  0  0  0  0  0  0
   -2.6745   -3.0478   -1.0142 H   0  0  0  0  0  0  0  0  0  0  0  0
   -1.9269    3.5411   -0.5918 H   0  0  0  0  0  0  0  0  0  0  0  0
  1  7  1  0  0  0  0
  1 13  1  0  0  0  0
  2 12  1  0  0  0  0
  2 32  1  0  0  0  0
  3 12  2  0  0  0  0
  4 13  2  0  0  0  0
  5  6  1  0  0  0  0
  5  8  1  0  0  0  0
  5  9  1  0  0  0  0
  5 10  1  0  0  0  0
  6  7  1  0  0  0  0
  6 15  1  0  0  0  0
  6 16  1  0  0  0  0
  7 11  1  0  0  0  0
  7 17  1  0  0  0  0
  8 18  1  0  0  0  0
  8 19  1  0  0  0  0
  8 20  1  0  0  0  0
  9 21  1  0  0  0  0
  9 22  1  0  0  0  0
  9 23  1  0  0  0  0
 10 24  1  0  0  0  0
 10 25  1  0  0  0  0
 10 26  1  0  0  0  0
 11 12  1  0  0  0  0
 11 27  1  0  0  0  0
 11 28  1  0  0  0  0
 13 14  1  0  0  0  0
 14 29  1  0  0  0  0
 14 30  1  0  0  0  0
 14 31  1  0  0  0  0
M  CHG  1   5   1
M  END
> <PUBCHEM_COMPOUND_CID>
2

> <PUBCHEM_CONFORMER_RMSD>
0.6

> <PUBCHEM_CONFORMER_DIVERSEORDER>
2
6
13
7
11
4
8
9
5
14
3
1
12
10

> <PUBCHEM_MMFF94_PARTIAL_CHARGES>
15
1 -0.43
10 0.5
11 0.06
12 0.66
13 0.66
14 0.06
2 -0.65
3 -0.57
32 0.5
4 -0.57
5 -1.01
6 0.5
7 0.28
8 0.5
9 0.5

> <PUBCHEM_EFFECTIVE_ROTOR_COUNT>
6

> <PUBCHEM_PHARMACOPHORE_FEATURES>
5
1 2 acceptor
1 3 acceptor
1 4 acceptor
1 5 cation
3 2 3 12 anion

> <PUBCHEM_HEAVY_ATOM_COUNT>
14

> <PUBCHEM_ATOM_DEF_STEREO_COUNT>
0

> <PUBCHEM_ATOM_UDEF_STEREO_COUNT>
1

> <PUBCHEM_BOND_DEF_STEREO_COUNT>
0

> <PUBCHEM_BOND_UDEF_STEREO_COUNT>
0

> <PUBCHEM_ISOTOPIC_ATOM_COUNT>
0

> <PUBCHEM_COMPONENT_COUNT>
1

> <PUBCHEM_CACTVS_TAUTO_COUNT>
1

> <PUBCHEM_CONFORMER_ID>
0000000200000002

> <PUBCHEM_MMFF94_ENERGY>
44.1107

> <PUBCHEM_FEATURE_SELFOVERLAP>
25.429

> <PUBCHEM_SHAPE_FINGERPRINT>
1 1 17688030812433054093
100427 49 17978514465967505697
10702982 57 18044642123097879627
11206711 2 18340210807573182436
12138202 97 18341611469259334758
12423570 1 16760242461435361603
12716758 59 18270396075406010554
12932764 1 18261123967259162392
13898156 1 17751332063291958344
14817 1 12021907503781911571
15490181 8 18122908629148541955
15775835 57 17895474717815826372
15852999 172 17843385311695268630
16945 1 18272359845980557453
17954114 43 17687739441988876567
18534176 82 18411699898133216828
20645476 183 17534088309829710350
20711985 344 18411136965227847891
20871998 184 18270134481790675931
21061003 4 17612046162292974571
21501502 16 18408882945332619964
21524375 3 18120650223875985809
23402539 116 18268687464364535021
23419403 2 16841030036158862667
23557571 272 18341331201458896112
23559900 14 17986384491981456594
25 1 17548997558432015341
2748010 2 18055059128135065177
305870 269 17688301287919619384
3060560 45 17832417601408938373
353137 74 17972040498711678236
74978 22 18335705975559216534
81228 2 18411983593692285873

> <PUBCHEM_SHAPE_MULTIPOLES>
259.66
4.36
2.6
1.23
3.54
0.81
0.05
-0.4
-0.71
-2.51
-0.17
0.01
-0.33
-0.13

> <PUBCHEM_SHAPE_SELFOVERLAP>
497.67

> <PUBCHEM_SHAPE_VOLUME>
160

> <PUBCHEM_COORDINATE_TYPE>
2
5
10

$$$$
3
  -OEChem-06212512493D

 19 19  0     1  0  0  0  0  0999 V2000
   -0.0782   -1.5651    1.3894 O   0  0  0  0  0  0  0  0  0  0  0  0
   -2.2297   -0.9343   -1.3664 O   0  0  0  0  0  0  0  0  0  0  0  0
    2.2983   -1.2575   -0.2803 O   0  0  0  0  0  0  0  0  0  0  0  0
    2.8296    0.9664   -0.3250 O   0  0  0  0  0  0  0  0  0  0  0  0
   -0.3026   -0.9556    0.1153 C   0  0  1  0  0  0  0  0  0  0  0  0
   -1.8113   -0.6388   -0.0329 C   0  0  1  0  0  0  0  0  0  0  0  0
    0.5877    0.2525    0.0138 C   0  0  0  0  0  0  0  0  0  0  0  0
   -2.1800    0.7909    0.2585 C   0  0  0  0  0  0  0  0  0  0  0  0
    0.1320    1.5099    0.1068 C   0  0  0  0  0  0  0  0  0  0  0  0
   -1.2680    1.7700    0.3349 C   0  0  0  0  0  0  0  0  0  0  0  0
    2.0222    0.0617   -0.2141 C   0  0  0  0  0  0  0  0  0  0  0  0
   -0.0418   -1.6945   -0.6527 H   0  0  0  0  0  0  0  0  0  0  0  0
   -2.3841   -1.2908    0.6377 H   0  0  0  0  0  0  0  0  0  0  0  0
   -3.2301    1.0276    0.4037 H   0  0  0  0  0  0  0  0  0  0  0  0
    0.7787    2.3781    0.0315 H   0  0  0  0  0  0  0  0  0  0  0  0
   -1.5681    2.7917    0.5400 H   0  0  0  0  0  0  0  0  0  0  0  0
    0.8454   -1.8688    1.4156 H   0  0  0  0  0  0  0  0  0  0  0  0
   -3.1904   -0.7899   -1.4159 H   0  0  0  0  0  0  0  0  0  0  0  0
    3.2524   -1.4274   -0.4325 H   0  0  0  0  0  0  0  0  0  0  0  0
  1  5  1  0  0  0  0
  1 17  1  0  0  0  0
  2  6  1  0  0  0  0
  2 18  1  0  0  0  0
  3 11  1  0  0  0  0
  3 19  1  0  0  0  0
  4 11  2  0  0  0  0
  5  6  1  0  0  0  0
  5  7  1  0  0  0  0
  5 12  1  0  0  0  0
  6  8  1  0  0  0  0
  6 13  1  0  0  0  0
  7  9  2  0  0  0  0
  7 11  1  0  0  0  0
  8 10  2  0  0  0  0
  8 14  1  0  0  0  0
  9 10  1  0  0  0  0
  9 15  1  0  0  0  0
 10 16  1  0  0  0  0
M  END
> <PUBCHEM_COMPOUND_CID>
3

> <PUBCHEM_CONFORMER_RMSD>
0.4

> <PUBCHEM_CONFORMER_DIVERSEORDER>
1
4
8
7
6
5
3
2

> <PUBCHEM_MMFF94_PARTIAL_CHARGES>
17
1 -0.68
10 -0.15
11 0.71
14 0.15
15 0.15
16 0.15
17 0.4
18 0.4
19 0.5
2 -0.68
3 -0.65
4 -0.57
5 0.42
6 0.42
7 -0.12
8 -0.29
9 -0.15

> <PUBCHEM_EFFECTIVE_ROTOR_COUNT>
1.4

> <PUBCHEM_PHARMACOPHORE_FEATURES>
8
1 1 acceptor
1 1 donor
1 2 acceptor
1 2 donor
1 3 acceptor
1 4 acceptor
3 3 4 11 anion
6 5 6 7 8 9 10 rings

> <PUBCHEM_HEAVY_ATOM_COUNT>
11

> <PUBCHEM_ATOM_DEF_STEREO_COUNT>
0

> <PUBCHEM_ATOM_UDEF_STEREO_COUNT>
2

> <PUBCHEM_BOND_DEF_STEREO_COUNT>
0

> <PUBCHEM_BOND_UDEF_STEREO_COUNT>
0

> <PUBCHEM_ISOTOPIC_ATOM_COUNT>
0

> <PUBCHEM_COMPONENT_COUNT>
1

> <PUBCHEM_CACTVS_TAUTO_COUNT>
1

> <PUBCHEM_CONFORMER_ID>
0000000300000001

> <PUBCHEM_MMFF94_ENERGY>
19.4085

> <PUBCHEM_FEATURE_SELFOVERLAP>
40.653

> <PUBCHEM_SHAPE_FINGERPRINT>
12423570 1 11236570564860564107
12897270 3 18272367624261165836
13024252 1 18041289836688233993
14128692 85 17129858584974226935
16945 1 18269833275586585841
18185500 45 18264763268773353209
20653085 51 18056217798663273992
21040471 1 18125439700668467153
23552423 10 18335704892858355278
241688 4 18341607157297084737
2748010 2 18410299072927155252
369184 2 18411705365489453928
5084963 1 18265620887753529592

> <PUBCHEM_SHAPE_MULTIPOLES>
202.9
3.34
1.75
0.89
1.33
0.23
0.02
0.08
-0.7
-0.26
0.2
-0.29
-0.35
-0.34

> <PUBCHEM_SHAPE_SELFOVERLAP>
420.494

> <PUBCHEM_SHAPE_VOLUME>
113.9

> <PUBCHEM_COORDINATE_TYPE>
2
5
10

$$$$
4
  -OEChem-06212512493D

 14 13  0     1  0  0  0  0  0999 V2000
    1.5903   -0.8258    0.0378 O   0  0  0  0  0  0  0  0  0  0  0  0
   -1.9942    0.1028   -0.1015 N   0  0  0  0  0  0  0  0  0  0  0  0
    0.4693   -0.0273   -0.3404 C   0  0  1  0  0  0  0  0  0  0  0  0
   -0.7967   -0.6430    0.2606 C   0  0  0  0  0  0  0  0  0  0  0  0
    0.7313    1.3933    0.1435 C   0  0  0  0  0  0  0  0  0  0  0  0
    0.4149   -0.0317   -1.4353 H   0  0  0  0  0  0  0  0  0  0  0  0
   -0.7090   -0.6871    1.3526 H   0  0  0  0  0  0  0  0  0  0  0  0
   -0.8967   -1.6812   -0.0775 H   0  0  0  0  0  0  0  0  0  0  0  0
    1.6841    1.7603   -0.2541 H   0  0  0  0  0  0  0  0  0  0  0  0
    0.8156    1.4252    1.2355 H   0  0  0  0  0  0  0  0  0  0  0  0
   -0.0587    2.0827   -0.1681 H   0  0  0  0  0  0  0  0  0  0  0  0
   -2.8156   -0.3770    0.2637 H   0  0  0  0  0  0  0  0  0  0  0  0
   -2.0968    0.1155   -1.1153 H   0  0  0  0  0  0  0  0  0  0  0  0
    1.4396   -1.7233   -0.3047 H   0  0  0  0  0  0  0  0  0  0  0  0
  1  3  1  0  0  0  0
  1 14  1  0  0  0  0
  2  4  1  0  0  0  0
  2 12  1  0  0  0  0
  2 13  1  0  0  0  0
  3  4  1  0  0  0  0
  3  5  1  0  0  0  0
  3  6  1  0  0  0  0
  4  7  1  0  0  0  0
  4  8  1  0  0  0  0
  5  9  1  0  0  0  0
  5 10  1  0  0  0  0
  5 11  1  0  0  0  0
M  END
> <PUBCHEM_COMPOUND_CID>
4

> <PUBCHEM_CONFORMER_RMSD>
0.4

> <PUBCHEM_CONFORMER_DIVERSEORDER>
1
5
6
4
3
2

> <PUBCHEM_MMFF94_PARTIAL_CHARGES>
7
1 -0.68
12 0.36
13 0.36
14 0.4
2 -0.99
3 0.28
4 0.27

> <PUBCHEM_EFFECTIVE_ROTOR_COUNT>
1

> <PUBCHEM_PHARMACOPHORE_FEATURES>
4
1 1 acceptor
1 1 donor
1 2 cation
1 2 donor

> <PUBCHEM_HEAVY_ATOM_COUNT>
5

> <PUBCHEM_ATOM_DEF_STEREO_COUNT>
0

> <PUBCHEM_ATOM_UDEF_STEREO_COUNT>
1

> <PUBCHEM_BOND_DEF_STEREO_COUNT>
0

> <PUBCHEM_BOND_UDEF_STEREO_COUNT>
0

> <PUBCHEM_ISOTOPIC_ATOM_COUNT>
0

> <PUBCHEM_COMPONENT_COUNT>
1

> <PUBCHEM_CACTVS_TAUTO_COUNT>
1

> <PUBCHEM_CONFORMER_ID>
0000000400000001

> <PUBCHEM_MMFF94_ENERGY>
-0.1086

> <PUBCHEM_FEATURE_SELFOVERLAP>
20.297

> <PUBCHEM_SHAPE_FINGERPRINT>
139733 1 9294993661768824926
20096714 4 18197503037103913545
21015797 1 8716345989422343382
24536 1 17242171464452986119
29004967 10 18410296882578243426
5943 1 11085239728363356890

> <PUBCHEM_SHAPE_MULTIPOLES>
92.05
1.98
1.2
0.63
0.77
0.25
0
-0.04
0.01
-0.48
-0.08
0
0.01
0.07

> <PUBCHEM_SHAPE_SELFOVERLAP>
155.457

> <PUBCHEM_SHAPE_VOLUME>
63.3

> <PUBCHEM_COORDINATE_TYPE>
2
5
10

$$$$
5
  -OEChem-06212512493D

 18 17  0     0  0  0  0  0  0999 V2000
   -2.2394   -0.0656    0.0016 P   0  0  0  0  0  0  0  0  0  0  0  0
   -0.6804   -0.5107    0.0062 O   0  0  0  0  0  0  0  0  0  0  0  0
   -2.3513    0.9225   -1.2736 O   0  0  0  0  0  0  0  0  0  0  0  0
   -2.3351    0.9423    1.2626 O   0  0  0  0  0  0  0  0  0  0  0  0
    1.8712   -1.3389   -0.0192 O   0  0  0  0  0  0  0  0  0  0  0  0
   -3.2207   -1.2009    0.0218 O   0  0  0  0  0  0  0  0  0  0  0  0
    4.0825    0.0417    0.0250 N   0  0  0  0  0  0  0  0  0  0  0  0
    0.3107    0.4952   -0.0119 C   0  0  0  0  0  0  0  0  0  0  0  0
    1.6964   -0.1203   -0.0043 C   0  0  0  0  0  0  0  0  0  0  0  0
    2.8661    0.8348   -0.0081 C   0  0  0  0  0  0  0  0  0  0  0  0
    0.2095    1.0986   -0.9185 H   0  0  0  0  0  0  0  0  0  0  0  0
    0.2125    1.1272    0.8752 H   0  0  0  0  0  0  0  0  0  0  0  0
    2.8312    1.4496   -0.9117 H   0  0  0  0  0  0  0  0  0  0  0  0
    2.8083    1.4714    0.8789 H   0  0  0  0  0  0  0  0  0  0  0  0
    4.8904    0.6632    0.0288 H   0  0  0  0  0  0  0  0  0  0  0  0
    4.1572   -0.5103   -0.8290 H   0  0  0  0  0  0  0  0  0  0  0  0
   -3.2325    1.2691   -1.5295 H   0  0  0  0  0  0  0  0  0  0  0  0
   -3.2143    1.2844    1.5310 H   0  0  0  0  0  0  0  0  0  0  0  0
  1  2  1  0  0  0  0
  1  3  1  0  0  0  0
  1  4  1  0  0  0  0
  1  6  2  0  0  0  0
  2  8  1  0  0  0  0
  3 17  1  0  0  0  0
  4 18  1  0  0  0  0
  5  9  2  0  0  0  0
  7 10  1  0  0  0  0
  7 15  1  0  0  0  0
  7 16  1  0  0  0  0
  8  9  1  0  0  0  0
  8 11  1  0  0  0  0
  8 12  1  0  0  0  0
  9 10  1  0  0  0  0
 10 13  1  0  0  0  0
 10 14  1  0  0  0  0
M  END
> <PUBCHEM_COMPOUND_CID>
5

> <PUBCHEM_CONFORMER_RMSD>
0.6

> <PUBCHEM_CONFORMER_DIVERSEORDER>
1
23
17
20
3
21
4
10
13
5
14
8
22
18
2
9
11
16
19
6
12
15
7

> <PUBCHEM_MMFF94_PARTIAL_CHARGES>
14
1 1.51
10 0.33
15 0.36
16 0.36
17 0.5
18 0.5
2 -0.55
3 -0.77
4 -0.77
5 -0.57
6 -0.7
7 -0.99
8 0.34
9 0.45

> <PUBCHEM_EFFECTIVE_ROTOR_COUNT>
4

> <PUBCHEM_PHARMACOPHORE_FEATURES>
7
1 3 acceptor
1 4 acceptor
1 5 acceptor
1 6 acceptor
1 7 cation
1 7 donor
4 1 3 4 6 anion

> <PUBCHEM_HEAVY_ATOM_COUNT>
10

> <PUBCHEM_ATOM_DEF_STEREO_COUNT>
0

> <PUBCHEM_ATOM_UDEF_STEREO_COUNT>
0

> <PUBCHEM_BOND_DEF_STEREO_COUNT>
0

> <PUBCHEM_BOND_UDEF_STEREO_COUNT>
0

> <PUBCHEM_ISOTOPIC_ATOM_COUNT>
0

> <PUBCHEM_COMPONENT_COUNT>
1

> <PUBCHEM_CACTVS_TAUTO_COUNT>
4

> <PUBCHEM_CONFORMER_ID>
0000000500000001

> <PUBCHEM_MMFF94_ENERGY>
-23.8799

> <PUBCHEM_FEATURE_SELFOVERLAP>
35.557

> <PUBCHEM_SHAPE_FINGERPRINT>
11062470 55 11241962694442536238
12932764 1 18041284261810134314
14325111 11 18410856568546248258
14390081 3 17989205953816718944
190213 19 18131633387407103268
3248919 1 18059006190200280054
8030462 33 17703500009012063465

> <PUBCHEM_SHAPE_MULTIPOLES>
175.32
6.18
1.12
0.84
2.42
0.15
0
0.07
-0.03
-0.25
0
-0.63
-0.27
0.01

> <PUBCHEM_SHAPE_SELFOVERLAP>
315.335

> <PUBCHEM_SHAPE_VOLUME>
112.8

> <PUBCHEM_COORDINATE_TYPE>
2
5
10

$$$$
